27
36. 36. 36.
N 11.938 15.838 13.512
H 10.809 12.395 12.332
H 5.653 14.012 14.003
H 7.596 15.030 9.623
H 6.104 13.210 9.728
H 13.480 14.967 14.493
H 13.077 12.583 13.518
H 7.211 15.762 13.931
H 4.316 12.385 12.871
H 10.326 17.405 13.207
H 4.421 12.000 11.150
S 8.704 16.916 11.702
O 9.052 17.197 10.344
O 7.847 17.900 12.288
N 10.469 14.398 12.255
C 7.569 15.556 11.703
N 4.580 12.623 11.920
N 9.945 16.579 12.691
C 6.965 15.265 12.969
C 10.893 15.600 12.687
C 5.610 13.576 11.853
C 11.217 13.343 12.589
C 7.253 14.746 10.547
C 12.744 14.759 13.739
C 6.249 13.760 10.661
C 6.016 14.211 13.045
C 12.373 13.462 13.365
27
36. 36. 36.
N 7.515975628317081 19.992801518276305 13.512
H 10.453099312512519 22.114639038855632 12.332
H 13.673944485232102 17.775839507491114 14.003
H 11.50365890930114 18.094325800612207 9.623
H 13.780481108072317 18.689762342304753 9.728
H 6.780431522741224 21.603819789045637 14.493
H 8.507744515060583 23.29563976367791 13.518
H 11.384872081848883 17.275827975554726 13.931
H 15.71192653069723 18.30624235661786 12.871
H 7.899052708574498 17.77756226470087 13.207
H 15.853276870362341 18.679431425960143 11.15
S 9.498705557844454 17.219784744696245 11.702
O 9.052 17.197 10.344
O 9.613653123597665 15.919980122021201 12.288
N 9.550832196328463 20.294330534493554 12.255
C 11.216327559709345 17.652912507267118 11.703
N 15.358453173970007 18.268871430967174 11.92
N 8.69279856602585 18.22186454218639 12.691
C 11.87601939620182 17.53331451035586 12.969
C 8.501291501282584 19.571112497216678 12.687
C 13.96500641220258 18.103296305661853 11.853
C 9.565800239392674 21.587506840217884 12.589
C 11.948082735082778 18.122476521342083 10.547
C 7.4981275033649375 21.339485759082475 13.739
C 13.33989194604258 18.330031623152312 10.661
C 13.263302023273269 17.828210954257344 13.045
C 8.560629839354288 22.170713036075462 13.365
27
36. 36. 36.
N 9.452659400749145 20.361703626659427 13.512
H 13.076027183399834 20.35191017736784 12.332
H 13.131466154834047 14.948582358287613 14.003
H 11.562868973651296 16.481904204210878 9.623
H 13.754846098103934 15.625341138303678 9.728
H 9.80452357879963 22.097386950369387 14.493
H 12.196375787245568 22.450810227690358 13.518
H 10.98566777530713 15.889546392892363 13.931
H 15.091991644347814 14.17979252682077 12.871
H 8.460491375917032 18.344369839082184 13.207
H 15.42570138643524 14.398625358077746 11.15
S 9.426785054253688 16.952866505558827 11.702
O 9.052 17.197 10.344
O 8.75577419428179 15.833737636393273 12.288
N 11.276127759561701 19.409588011616044 12.255
C 11.07095690471347 16.29368221709644 11.703
N 14.784059518514983 14.357325075611335 11.92
N 9.363799646917734 18.237266302531218 12.691
C 11.53436112983833 15.809168518490893 12.969
C 10.001934587596882 19.441396194812125 12.687
C 13.559414427095739 15.042418791874118 11.853
C 12.04834657132317 20.446992034531757 12.589
C 11.938962106450564 16.24345304472275 10.547
C 10.229780516805745 21.461685340588772 13.739
C 13.186957583983105 15.59328438348297 10.661
C 12.830032437962469 15.232321171869724 13.045
C 11.57794607245379 21.50963984573895 13.365
27
36. 36. 36.
N 7.366207933521835 16.710027101867325 14.48321049296645
H 10.627771357967022 14.81642567414036 15.028891408183192
H 8.743765318763447 11.318545742065272 11.00314635601821
H 11.151110288949333 15.497244788987357 10.143415310997039
H 12.409761609420434 13.50770683387648 10.059602551529418
H 7.089626664873265 16.758418782628496 16.488186065652027
H 9.433412727334813 15.784483532968146 17.083674959654275
H 7.50172336443648 13.298103443259546 11.186806616646601
H 10.77816581153122 10.19823223290966 10.435489526384597
H 6.684054977401092 16.610216678973565 12.321784291603677
H 12.301771097802817 10.9964783739187 10.032350555297175
S 8.261268895225207 16.08866781946481 10.780546787334128
O 9.052 17.197 10.344
O 7.243398660836353 15.71049146761866 9.849405641830659
N 9.379847234945164 15.665724701386793 13.666938932691338
C 9.260917642104172 14.630328866923824 10.672030049616026
N 11.302771957669727 11.009185024301757 10.122623801884336
N 7.64844240621318 16.208071362425123 12.277863550178155
C 8.566484318000064 13.395965029096018 10.887346733216559
C 8.22382802070879 16.335881595523063 13.506585218802487
C 10.631803293192009 12.223037499272195 10.346143868762312
C 9.77194715655021 15.439062290398724 14.923508390748628
C 10.683759419605304 14.624493274375933 10.411685619952104
C 7.848769734159871 16.567228438026053 15.752914651489261
C 11.339672036093711 13.385592390567249 10.244021552157623
C 9.291240347131836 12.179041880007322 10.781896520086399
C 9.020592760648508 15.852061076220604 16.02694464838603
27
36. 36. 36.
N 12.22 15.838007658264928 7.457996393781631
H 11.040000000000001 12.395004662374173 8.586987257467998
H 12.711000000000002 14.011990980459506 13.742991548304541
H 8.331 15.02999613638089 11.79999424966579
H 8.436 13.209992177231328 13.291989420127114
H 13.201 14.967011750103456 5.915994082510348
H 12.226 12.583010680715162 6.318987756350864
H 12.639000000000001 15.761995114746243 12.184996192092164
H 11.579000000000002 12.38498743261568 15.079987230909243
H 11.915000000000001 17.405003380672664 9.07000055195116
H 9.858000000000002 11.999987711243964 14.974986209277539
S 10.41 16.915999076551742 10.691999254340042
O 9.052 17.197 10.344
O 10.996 17.89999680242182 11.549001865469382
N 10.963000000000001 14.39800376014659 8.926992572607157
C 10.411 15.555996064732113 11.826995645453927
N 10.628000000000002 12.622988133162547 14.81598786246454
N 11.399000000000001 16.57900236965786 9.45099836008465
C 11.677 15.264994461964903 12.430994873257172
C 11.395 15.600004885264433 8.50299576222358
C 10.561000000000002 13.57599086635668 13.78599039133924
C 11.297 13.343005745035471 8.178989773072557
C 9.255 14.745995226200591 12.142993496045083
C 12.447000000000001 14.7590097970621 6.651993530561081
C 9.369 13.75999256199991 13.146990879602011
C 11.753000000000002 14.2109919437119 13.379992076370188
C 12.073 13.462008812584854 7.022990088853814
27
36. 36. 36.
N 11.890264359444366 18.409047821534724 13.613143084085003
H 9.161387982710433 16.928102173286646 15.82251487430922
H 5.8332458111537004 20.93670357800139 13.621185624963589
H 6.6948424921079495 16.590504722244816 11.532123714538516
H 4.683209023000802 16.811221315754064 12.737986049681963
H 13.145588117454707 18.397729847282065 15.201475595253115
H 11.539436774319464 17.078787338428878 16.775374741095984
H 7.882600961591964 20.69895408935738 12.508231606137262
H 3.6849572786482714 20.066803756049904 14.207916126023868
H 11.052121791509975 19.22376164866663 11.668710926436802
H 3.130092279921417 18.420948601663913 13.884842382168207
S 9.019518922984117 18.449061144888784 11.033577311906122
O 9.052 17.197 10.344
O 8.84791837763023 19.574516764958133 10.167549656407427
N 9.669160478443395 17.534302724264833 13.949488984319746
C 7.47696971123614 18.554741985068794 11.897984327931873
N 3.742246265506113 19.1926174579928 13.69483008229044
N 10.23606047747434 18.71077397102741 12.074396240842873
C 7.192541780166204 19.829278580745726 12.486975175320467
C 10.65338660903918 18.056512619291947 13.19463817164997
C 5.007681455378117 18.964219948698613 13.12905065708852
C 9.97768230281472 17.236711661319053 15.214533980808564
C 6.542541301698518 17.461410370930516 12.05213207840126
C 12.208853133402988 17.98793383142084 14.872734367175633
C 5.299363852812824 17.71128975586328 12.67283983859738
C 5.958270862713409 20.005295966059403 13.167332568458495
C 11.247880947397762 17.469173489018637 15.748603172919443
27
36. 36. 36.
N 6.839885954243835 14.851987023126915 7.2103812314091
H 5.767238251343143 18.335914521235477 6.09999116778962
H 3.402924800444553 18.74724713935214 11.221718745782548
H 8.101804378453407 19.731484673972034 10.248178717423826
H 6.635928098375635 21.570466341497276 10.385445457792462
H 6.164808395519636 14.112173591058475 5.450917570108278
H 5.680719621650357 16.43724543547753 4.375655287079844
H 4.831619377890597 16.903298838380135 10.98991178359478
H 3.083132409699953 21.113288422655053 11.347032242773722
H 7.274846643437666 14.772210252806012 9.435578495872006
H 4.328654109291286 22.326916309138145 11.035786280554598
S 7.699498500761386 16.748193355206972 10.460367049231865
O 9.052 17.197 10.344
O 7.397240726360324 16.167251160135404 11.732077473738775
N 6.664538691387691 17.23187894674027 7.552401361414306
C 6.659842229225946 18.177465724070334 10.579200262858159
N 4.056894259524991 21.39095617141645 11.273347229893897
N 7.167884847180369 15.79730700299696 9.25829672329125
C 5.288568888025428 17.91101691092272 10.896796631988844
C 7.033111170049231 15.989613534029 7.915905106036815
C 4.92013084840028 20.316792689039 11.000229297941944
C 6.151078139047405 17.370364269847702 6.327140133563592
C 7.100717963872707 19.537361558947534 10.358737329730362
C 6.421616478266651 15.041492263219856 5.924090280868327
C 6.192748040828361 20.593134079572533 10.59142382168892
C 4.398008220314218 19.007477231584428 11.045017623552756
C 5.979257319364865 16.286641082413016 5.461868696995842
27
36. 36. 36.
N 9.85479567255015 18.555984683460572 14.553605769933132
H 9.588184708969022 21.99899067521784 12.942420388041304
H 14.018589857951088 20.382018039058558 9.82021352273188
H 9.348793099592799 19.36400772722296 8.746609200542935
H 10.327987304140082 21.18401564550927 7.616016927813224
H 9.714392899031129 19.426976499777382 16.375809467958494
H 9.176185307638043 21.810978638537183 15.468419589815943
H 13.026195430502819 18.632009770497408 11.023406092662906
H 13.91518467707108 22.009025134734753 8.071420430571894
H 10.578000662346778 16.988993238656132 13.080999116870963
H 12.475383451113483 22.394024577475474 7.122822065182024
S 10.347199105206581 17.478001846894536 10.880401193057892
O 9.052 17.197 10.344
O 11.330202238558167 16.494006395161303 10.546397015255778
N 9.730591087134576 19.995992479687107 12.624211883820566
C 11.028994774538447 18.838007870524216 9.97300696728207
N 12.995985434938554 21.771023733642693 7.712019420081928
N 10.393798032105355 17.814995260679922 12.466602623859528
C 12.404193847899787 19.129011076056585 10.249408202800282
C 9.821794914676074 18.79399022945989 13.2226067804319
C 12.324388469592545 20.81801826726114 8.495815373876606
C 9.548987727696217 21.050988509901917 13.42301636307171
C 10.2937921952465 19.648009547581555 9.026610406338003
C 9.552792236688898 19.63498040585863 15.33461035108147
C 10.98738905551057 20.63401487597598 8.291814592652571
C 13.034390491631399 20.183016112555173 9.5358126778248
C 9.476188106638608 20.93198237480399 14.813415857815187
27
36. 36. 36.
N 5.058230075990464 15.146684719083321 10.10293975251728
H 5.200854659093644 15.554033939221902 13.889100715966553
H 9.83034871133947 12.316636687293471 13.609261738290567
H 9.795196571942933 17.170287477220413 12.948344696191159
H 10.442553681625732 16.390814464251374 15.075041570359195
H 3.088726391380563 14.701986341226283 10.251481292294356
H 2.8999646837283883 15.264795175549335 12.79000551588021
H 9.089875620681628 13.082657140011413 11.521209950611576
H 10.783070276735133 12.76099789583737 15.75658256554751
H 7.130499779543152 14.99621426261731 9.19183332763127
H 11.075400381326897 14.368844491085948 16.42774829478055
S 8.849847030594889 15.784831102834948 10.43961476266947
O 9.052 17.197 10.344
O 9.77824895666933 15.020569333458868 9.664969804297307
N 6.231623383472541 15.676943684961135 12.140973995375447
C 9.374835666666193 15.267461139739925 12.050372737438817
N 10.921201851338516 13.760610689819044 15.645070547335386
N 7.33275907672529 15.272129411430349 10.180091900758196
C 9.423675251193337 13.849882625042657 12.251218075079256
C 6.149332388611258 15.52658068755091 10.806124505292555
C 10.36562356021581 14.267691083738288 14.458562967698459
C 5.096135556308479 15.539407115338975 12.830782727111139
C 9.718963773191136 16.16404436313054 13.132041064530835
C 3.895321554815057 15.127260470616632 10.81895125378603
C 10.225652572798312 15.619518649509018 14.332026984263903
C 9.869190061687029 13.354356385747014 13.505516006114897
C 3.8796204303091466 15.234154983721725 12.21467795975582
