210
142.30858 142.30858 34.53355
Ne 36.6562 -62.311 -5.6698
Ne 51.2121 69.5084 -5.2732
Ne 60.24 64.5758 -14.0292
Ne 62.6939 -68.4537 7.9286
Ne 57.0622 69.1336 -15.5028
Ne 58.2824 48.8971 1.6744
Ne 44.5915 50.7796 -10.7458
Ne 65.7359 66.3239 -4.3354
Ne 61.058 66.9385 11.0106
Ne 47.4966 47.6177 0.8388
Ne 52.3523 46.2439 -4.8325
Ne 52.5345 -64.9918 -3.3548
Ne 45.6184 55.3078 -12.0465
Ne 55.135 62.0197 -0.6358
Ne 30.8364 61.6633 -11.8561
Ne 48.4756 -64.2596 4.089
Ne 42.5737 70.1487 12.3978
Ne 68.2262 65.1637 2.1793
Ne 42.8806 -61.3228 -9.7214
Ne 40.245 59.778 14.1755
Ne 39.4477 69.1456 4.5864
Ne 56.0155 69.8673 13.9308
Ne 53.8175 -59.3689 -12.6117
Ne 34.451 69.7156 16.6559
Ne 54.086 48.2072 -11.5884
Ne 42.2588 -68.6132 10.0376
Ne 48.8858 61.8831 -3.6482
Ne 44.1404 66.6231 9.1674
Ne 62.2568 58.9783 -14.6603
Ne 52.9468 48.4579 -16.6632
Ne 47.174 55.2756 0.9363
Ne 43.1432 62.6571 -12.9083
Ne 52.0079 53.5151 8.2293
Ne 58.7912 55.9908 0.7072
Ne 61.7386 60.9204 1.4421
Ne 56.1728 44.9114 -8.2529
Ne 34.1621 70.4152 -8.3177
Ne 43.9958 67.3075 0.0562
Ne 65.6697 66.8954 15.4831
Ne 38.1541 60.8789 -10.3065
Ne 29.9314 61.354 -4.1101
Ne 63.1492 65.8409 5.9412
Ne 30.8469 68.0753 -0.944
Ne 51.1584 61.2154 -17.0366
Ne 60.8005 71.2129 2.5205
Ne 39.3049 -69.0611 3.9119
Ne 65.5493 60.9047 10.8604
Ne 53.2767 50.5607 0.727
Ne 60.1089 48.1844 9.6355
Ne 66.8733 59.88 -12.9982
Ne 63.2217 71.0913 -16.1397
Ne 68.9538 53.7266 -1.8547
Ne 64.2563 53.7899 -16.5295
Ne 56.1682 -66.5462 -10.4804
Ne 49.162 -62.752 -10.3533
Ne 46.199 68.3689 4.7027
Ne 46.0855 49.5391 5.3659
Ne 35.9925 59.0381 1.4128
Ne 67.2337 -71.1247 6.1585
Ne 55.0532 62.6837 9.2967
Ne 70.7392 63.1162 -8.2164
Ne 57.8587 48.5769 14.9568
Ne 63.0337 49.3386 -2.0047
Ne 45.2494 62.0291 6.1802
Ne 46.8405 52.1546 -16.4971
Ne 49.2529 47.3407 13.7598
Ne 39.0796 58.0432 -14.4032
Ne 48.6902 -68.4866 0.1865
Ne 57.6917 52.8306 -12.0692
Ne 52.9817 47.9992 6.7536
Ne 52.1603 57.4679 4.16
Ne 45.9312 -68.9114 -14.1249
Ne 39.4035 56.164 -3.3845
Ne 52.3391 -62.2585 1.3215
Ne 67.5541 60.1172 15.4718
Ne 52.1581 69.6322 5.2063
Ne 45.1426 53.0783 13.1138
Ne 39.1436 -68.2376 -10.3195
Ne 49.9933 67.602 -0.9545
Ne 38.2183 58.0891 10.5736
Ne 43.9035 52.1666 -3.8477
Ne 59.2762 -68.6446 -5.0444
Ne 37.2464 64.2958 7.9047
Ne 55.05 45.0945 -0.3132
Ne 60.9315 53.475 7.0381
Ar 49.8118 -57.9403 -12.0828
Ar 34.4448 -64.4128 -9.445
Ar -70.0502 67.5397 -8.97754
Ar 32.6764 56.1731 2.70894
Ar 25.3726 63.1498 -5.03646
Ar 53.5624 -58.1282 -0.544986
Ar 65.8613 50.4692 -14.4976
Ar 36.4073 -65.8233 1.47639
Ar 62.3919 50.9297 -6.54199
Ar 68.3259 67.9861 7.93355
Ar 69.5996 68.5864 -0.812689
Ar 66.0363 -69.6038 -13.7718
Ar 69.7942 -69.9787 9.58723
Ar 65.0957 47.6003 -5.28391
Ar 66.2764 46.649 -1.06004
Ar 62.0154 45.6346 6.39259
Ar 67.4657 69.9108 1.61744
Ar -71.2966 49.3115 -1.74944
Ar 47.1853 46.5529 9.16219
Ar 48.6395 44.2115 4.1312
Ar 40.3142 -66.3316 0.0567888
Ar -71.5819 59.4254 -16.8162
Ar 43.4024 49.5244 -15.3676
Ar 54.5181 43.989 -16.9721
Ar 71.1525 70.1433 6.36366
Ar -70.3894 52.3008 -4.82256
Ar 64.4252 65.7614 -12.2312
Ar 49.7056 -58.4762 0.910829
Ar -71.0044 -69.7904 5.45196
Ar 32.5468 -69.6686 -11.0274
Ar -69.7702 56.0735 0.630253
Ar 56.5784 -65.3683 -1.8226
Ar 71.2234 68.3764 2.51803
Ar 43.3456 46.1802 5.74379
Ar 67.6489 70.4906 -15.2158
Ar 47.7611 47.6738 -16.0123
Ar 71.0953 66.3948 5.51356
Ar 66.4348 -70.3491 16.3594
Ar 58.3135 62.6103 5.62575
Ar 35.0779 65.7793 15.2428
Ar 64.889 70.5796 14.0325
Ar 34.4305 -68.034 -8.18339
Ar 35.3549 -63.0662 -1.25966
Ar 52.1925 -63.1167 7.05962
Ar 27.5953 67.1514 1.75539
Ar 54.0287 -54.6917 -10.8659
Ar 45.4981 -57.5736 -10.4616
Ar 56.9396 -58.0081 -9.38266
Ar 66.9668 68.6582 11.6826
Ar 46.6863 -62.8793 -0.0401386
Ar 51.4291 -55.8658 -14.8315
Ar 58.2078 -67.6444 6.74836
Ar 56.6698 -61.3927 0.639592
Ar 55.8209 -60.9638 4.5418
Ar 42.1612 46.9122 -12.6874
Ar 62.6787 56.8258 9.78614
Ar 36.9283 54.92 8.08719
Ar 40.5774 50.1428 -12.088
Ar 27.4674 57.6649 -3.16882
Ar 36.7239 55.8248 4.04632
Ar 30.6198 66.6754 -5.52509
Ar 43.2611 48.9401 2.16142
Ar 45.6229 44.6908 14.9245
Ar 36.8477 70.1174 7.61665
Ar 50.3594 45.3019 -11.7035
Ar 50.7303 -60.7788 -15.9224
Ar 32.1165 -69.1875 -15.1727
Ar 31.0457 70.4472 -15.9956
Ar 31.9406 65.6093 -13.9805
Ar 43.0504 53.9345 -15.9825
Ar 41.9292 -56.9688 -10.7244
Ar 44.4525 48.937 15.9148
Ar 45.8117 -62.1269 -13.18
Ar 34.4828 -60.7366 -8.8197
Ar 36.3698 52.4692 -2.37986
Ar 64.7858 52.0946 13.6732
Ar -71.435 63.9955 2.21159
Ar 37.9451 -66.9923 10.7916
Ar 29.5587 70.9705 -9.82728
Ar 57.7668 -68.0861 12.7151
Ar 32.6992 -60.5939 -5.62076
Ar 29.2754 58.9338 -8.29891
Ar 53.2531 -60.3287 -4.35211
Ar 35.0181 59.4319 8.46966
Ar 60.8799 48.696 5.4811
Ar 39.8766 -69.6859 14.3372
Ar 69.2453 61.5013 4.30286
Ar 56.66 44.5957 -13.6489
Ar 39.1169 -71.3716 11.1951
Ar 34.7387 -58.319 -3.67612
Ar 64.0631 48.584 7.66249
Ar 70.6972 60.3674 12.117
Ar 29.5368 59.7064 -15.4332
Ar 70.2509 63.5328 -17.275
Ar 65.2526 -67.1725 -16.6459
Ar 53.3445 -57.9711 3.2953
Ar 61.5773 -66.9751 3.59298
Ar 50.6559 -58.8717 -7.58745
Ar 53.3113 44.3783 10.1285
Ar 35.1464 -70.3861 5.72663
Ar 70.1333 67.5112 14.4941
Ar 53.2995 45.7892 13.9622
Ar -68.7762 63.7292 -12.2471
Ar 51.7047 42.0433 -6.04346
Ar 56.9768 42.6349 -3.87001
Ar 70.3489 62.1028 -0.394388
Ar 44.6364 50.0422 9.3076
Ar 34.5459 -71.2162 -1.66552
Ar 62.8793 -68.2769 -12.4316
Ar 27.7816 65.3137 -13.165
Ar 59.8712 44.4739 -10.9198
Ar 58.382 42.5867 1.57607
Ar 28.8347 -70.7526 0.820137
Ar 63.296 61.5773 7.00735
Ar 60.983 -64.5375 9.10557
Ar 66.5004 -67.5969 10.403
Ar 56.4462 41.5493 -11.3373
Ar 55.2354 -65.1065 1.24581
Ar 37.0253 -64.4731 -11.9367
Ar 55.9476 40.1891 -8.2578
Ar 37.8715 -64.3015 4.33041
Ar 31.1572 58.3887 -1.57348
Ar 43.0688 64.0669 3.27751
Ar 31.9015 -69.5975 -5.79879
Ar 35.152 60.7891 -15.0397
