64
7.125200 7.125200 7.125200
C 0 0 0
C 0 1.7813 1.7813
C 1.7813 0 1.7813
C 1.7813 1.7813 0
C 0.89065 0.89065 0.89065
C 0.89065 2.67195 2.67195
C 2.67195 0.89065 2.67195
C 2.67195 2.67195 0.89065
C 3.5626 0 0
C 3.5626 1.7813 1.7813
C 5.3439 0 1.7813
C 5.3439 1.7813 0
C 4.45325 0.89065 0.89065
C 4.45325 2.67195 2.67195
C 6.23455 0.89065 2.67195
C 6.23455 2.67195 0.89065
C 0 3.5626 0
C 0 5.3439 1.7813
C 1.7813 3.5626 1.7813
C 1.7813 5.3439 0
C 0.89065 4.45325 0.89065
C 0.89065 6.23455 2.67195
C 2.67195 4.45325 2.67195
C 2.67195 6.23455 0.89065
C 3.5626 3.5626 0
C 3.5626 5.3439 1.7813
C 5.3439 3.5626 1.7813
C 5.3439 5.3439 0
C 4.45325 4.45325 0.89065
C 4.45325 6.23455 2.67195
C 6.23455 4.45325 2.67195
C 6.23455 6.23455 0.89065
C 0 0 3.5626
C 0 1.7813 5.3439
C 1.7813 0 5.3439
C 1.7813 1.7813 3.5626
C 0.89065 0.89065 4.45325
C 0.89065 2.67195 6.23455
C 2.67195 0.89065 6.23455
C 2.67195 2.67195 4.45325
C 3.5626 0 3.5626
C 3.5626 1.7813 5.3439
C 5.3439 0 5.3439
C 5.3439 1.7813 3.5626
C 4.45325 0.89065 4.45325
C 4.45325 2.67195 6.23455
C 6.23455 0.89065 6.23455
C 6.23455 2.67195 4.45325
C 0 3.5626 3.5626
C 0 5.3439 5.3439
C 1.7813 3.5626 5.3439
C 1.7813 5.3439 3.5626
C 0.89065 4.45325 4.45325
C 0.89065 6.23455 6.23455
C 2.67195 4.45325 6.23455
C 2.67195 6.23455 4.45325
C 3.5626 3.5626 3.5626
C 3.5626 5.3439 5.3439
C 5.3439 3.5626 5.3439
C 5.3439 5.3439 3.5626
C 4.45325 4.45325 4.45325
C 4.45325 6.23455 6.23455
C 6.23455 4.45325 6.23455
C 6.23455 6.23455 4.45325
          64
7.1252000000000004e+00 7.1252000000000004e+00 7.1252000000000004e+00
 C  0.325370014      0.179938003       2.79360004E-02
 C   1.45082998       2.00089002      0.352117985    
 C  0.706470013      0.962723970       1.16782999    
 C   3.42280006      0.128781006      0.302195013    
 C   4.19595003      0.943993986       1.14393997    
 C   5.72203016       1.57734001      0.191845000    
 C -0.124293998       3.52975011      -7.36629963E-02
 C  0.886500001       3.97086000      0.570060015    
 C   2.71313000       2.52380991      0.835075974    
 C   3.72741008       3.28109002      0.118415996    
 C   4.16163015       4.53841019      0.801822007    
 C   6.02122021       2.84931993      0.651118994    
 C   1.76617002       5.60710001     -0.271436989    
 C   2.65387988       6.28674984      0.894837976    
 C   5.36349010       5.40236998     -0.207852006    
 C   6.24414015       6.15552998      0.913537025    
 C -0.224875003       1.48336005       2.09416008    
 C   1.86005998      0.104047999       1.84957004    
 C   3.49724007       1.72205997       2.10517001    
 C   5.34874010     -0.198926002       1.59884000    
 C   1.67369998       3.48377991       1.68542004    
 C   5.53220987       3.46630001       1.94852996    
 C -0.151561007       5.29301977       1.85362995    
 C   3.48299003       5.37781000       1.75415003    
 C   2.78837991      0.873452008       3.08769989    
 C   6.09531021      0.587168992       2.79639006    
 C  0.644791007       2.74017000       2.44115996    
 C   4.32613993       2.89037991       2.11107993    
 C   2.42387009       4.63932991       2.42721009    
 C   6.17521000       4.62053013       2.81799006    
 C  0.880711973       6.33609009       2.65376997    
 C   4.61999989       6.24209976       2.67587996    
 C  -9.75842997E-02 -0.134506002       3.59963989    
 C   1.43519998       1.69281995       3.47730994    
 C   3.68112993      0.185769007       3.66334009    
 C   5.51826000       1.49514997       3.95053005    
 C  0.144768998       3.62388992       3.81222010    
 C   3.67417002       3.59016991       3.33463001    
 C   2.03332996       5.21491003       3.55509996    
 C   5.45325994       5.55696011       3.59579992    
 C  0.626230001      0.836445987       4.13465023    
 C   4.41922998      0.899917006       4.81310987    
 C   1.07330000       4.62767982       4.42490005    
 C   2.68671989       2.74298000       4.08749008    
 C   4.66254997       4.64282990       4.70678997    
 C   6.33788013       2.38649988       4.83548021    
 C   2.97375011       6.32480001       4.46910000    
 C   6.14704990       6.39207983       4.55484009    
 C   6.68729022E-02   1.60091996       5.52536011    
 C   1.87267995       4.95225005E-02   4.85868979    
 C   3.72849989       1.64143002       5.51405001    
 C   5.27625990      0.283046007       5.72760010    
 C   1.74483001       3.42366004       5.59533978    
 C   5.40098000       3.49936008       5.18815994    
 C  -7.00595006E-02   5.40311003       5.16379023    
 C   3.65233994       5.67383003       5.23705006    
 C   2.19176006      0.978422999       5.66581011    
 C   6.42718983      0.657622993       6.39000988    
 C   1.29614997       2.13101006       6.18077993    
 C   4.52412987       2.81329012       6.15771008    
 C   2.60821009       4.64460993       5.94418001    
 C   6.67350006       4.19119978       5.87430000    
 C  0.890196025       6.35952997       5.87337017    
 C   4.24316978       6.47728014       6.27606010    
          64
7.1252000000000004e+00 7.1252000000000004e+00 7.1252000000000004e+00
 C  0.960030019      0.599250972      0.710352004    
 C   3.14029002       1.67919004       1.02637005    
 C   4.56452990       1.37405002      0.620235980    
 C -0.414196998      0.337778986      0.113315001    
 C -0.403712988       4.05500984      -5.02334014E-02
 C   5.50777006       4.80383015      0.559087992    
 C   2.70825005       6.23442984      0.601180017    
 C   2.16614008       3.15465999       7.99372005    
 C   3.90247989       1.53508000E-02  -3.94795984E-02
 C   1.43840003      0.120917998       2.00823998    
 C   5.59187984       2.35702991       1.28041995    
 C   6.64772987       3.19780993       1.18419003    
 C   1.06730998       4.58807993      0.835362971    
 C   3.26767993       5.42091990       1.41982996    
 C   6.65479004E-02   5.31557989       1.73081994    
 C   4.83510017      0.404716015       1.88375998    
 C   4.84865999       3.46168995       2.27062011    
 C   3.84312010       4.17337990      0.932430029    
 C   6.05182981       6.21427011       1.03926003    
 C   2.77552009       1.11701000       2.28701997    
 C   4.59617996       1.41980004       2.88365006    
 C   6.36366987       1.23243999       2.27140999    
 C   4.44585991       6.29906988       2.29257989    
 C   1.88971996       2.64254999       2.14456010    
 C   2.48534989       3.69827008       2.77238011    
 C  0.561276019       6.41271019       2.63460994    
 C  0.297625005       2.64192009       2.22669005    
 C   6.05881977       4.46140003       2.82488990    
 C   2.06847000       4.83388996       2.11455989    
 C   2.21644998       1.18781996       3.85222006    
 C   5.65004015       6.84822989       4.34528017    
 C -0.258576989       5.63111007E-02   3.72339010    
 C   3.48254991       3.39491010       3.77079010    
 C -0.263056993       3.17067003       3.61694002    
 C   1.40559995       5.34646988       3.50404000    
 C   3.09934998     -0.178351000       3.55053997    
 C   5.12658024       5.41101980       3.67656994    
 C   4.73940992       2.58239007       3.16846991    
 C  0.727434993      0.663546979       4.50373983    
 C  0.498775005       4.72904015       4.21054983    
 C   2.67200994       2.38164997       4.64172983    
 C   5.80452013       2.47537994       4.40560007    
 C   4.17253017       4.58346987       4.43652010    
 C   2.22621989       6.10828018       4.35739994    
 C   3.13453007       5.14394999       4.87635994    
 C   4.50817013      0.689094007       4.29387999    
 C  0.698049009       1.43061996       5.70045996    
 C   3.97416997       1.48633003       5.52778006    
 C   5.53840017     -0.900340021       5.39940023    
 C -0.422540992       5.38184023       5.55087996    
 C   1.51801002       3.15741992       5.61984015    
 C   5.26459980       4.10645008       5.26852989    
 C   2.06502008     -0.143450007       5.49148989    
 C   2.45016003       4.59301996       5.85176992    
 C   7.01498985       3.57555008       5.76376009    
 C   2.07805991       1.33508003      -8.94860998E-02
 C   6.41933012       1.22485006       5.94262981    
 C   4.80760002       5.69571018       6.59402990    
 C  0.540314972       6.41450977       6.08858013    
 C   4.57569981       3.27339005       6.32631016    
 C   3.11282992       4.05818987     -0.208142996    
 C   1.55438006       5.46354008     -0.260055006    
 C   3.06034994      0.738628983       6.12170982    
 C   4.98135996       1.75337994     -0.689698994    
          64
7.1252000000000004e+00 7.1252000000000004e+00 7.1252000000000004e+00
 C   1.71357000       2.13907003       1.40111005    
 C  -8.31184015E-02  0.835124016      0.787976027    
 C   5.32596016       8.21745014       7.91052008    
 C  0.890725970       3.64892006      0.168414995    
 C   2.95804000       2.89250994       7.96480989    
 C   7.19970989       2.15204000      0.775595009    
 C  -1.55560994       3.44706011      -8.42999965E-02
 C   3.04976010       5.47638988      0.577807009    
 C  -4.62350988       6.93360996      0.462437004    
 C   2.07627010      0.624586999       1.47953999    
 C   5.75076008       2.30591989       1.57283998    
 C   3.90264010      -4.98731995       2.61962008    
 C   2.23505998      -2.04196000       1.45968997    
 C   4.45828009       7.07643986       8.77260971    
 C   5.02645016       5.65565014      0.958464980    
 C   6.52699995       5.34945011       1.37338996    
 C   1.07033002       6.27408028E-02   1.97312999    
 C   3.24993992      0.723885000      -4.94660997    
 C   8.64412022       10.3045998       2.86730003    
 C  -8.08933005E-02   3.98800993       2.20461011    
 C   2.61567998       3.80456996       2.09037995    
 C  -1.46915996       3.58460999       9.14900017    
 C   1.87703001      -1.13542998       2.55726004    
 C   3.75659990       5.87472010       2.55505991    
 C   4.26771021       4.08181000       1.78202999    
 C   5.62860012       1.33098997E-02   9.83852959    
 C   6.73664999       5.95515013       2.81928992    
 C   7.71497011       8.22424030       3.42159009    
 C   3.25347996      0.648603976       3.75088000    
 C   6.39673996       8.42265987       10.0642004    
 C   1.72955000       3.70434999       4.05091000    
 C  0.822809994       5.02585983       3.63466001    
 C   5.94404984       5.06307983       3.93214989    
 C  -6.91630021E-02 -0.212687001      -2.85514998    
 C   1.66428006       1.58907998       4.36848021    
 C   3.18711996       2.14573002       4.05976009    
 C   5.57842016      -1.91294998E-02   4.52580023    
 C  -1.13011003       2.44585991      -3.23966002    
 C  -8.03892985E-02   3.15397000       4.55335999    
 C   4.64525986       1.96467996       4.76033020    
 C   4.48759985      -3.58289003       3.71414995    
 C   6.12834978       4.30906010       5.20568991    
 C   7.78461981       5.66436005       4.91245985    
 C   2.08108997       6.47516012      -2.88870001    
 C   3.03795004      0.109912001       4.92594004    
 C   4.52082014       5.81505013       3.80870008    
 C   3.52288008       4.87918997       4.91104984    
 C  0.664861023      0.314787000       6.11675978    
 C   10.0943003       8.07297993     -0.971296012    
 C -0.344810992       2.21742010       5.83973980    
 C   5.42604017      0.565824986      -1.42658997    
 C   2.41001010       4.08974981       5.38119984    
 C   5.03682995      -1.85099006       5.77751017    
 C -0.537415028       5.39234018       6.23071003    
 C   1.50285995       1.53893995     -0.646283984    
 C   3.69884992       2.23262000       6.85899019    
 C   5.30627012       1.98447001     -0.596346974    
 C   1.07208002       2.90686989       5.76675987    
 C   3.07451010       3.89710999     -0.480452001    
 C   4.55974007       4.51459980       7.01780987    
 C  0.268783003       5.28489017      0.406172007    
 C   1.24144995       6.27465010       6.84639978    
 C -0.883723974     -0.159682006     -0.221636996    
 C   4.54593992     -0.580018997       6.89905977    
